
CRYSTAL

PRIMVEC
   2.794049999       2.794049999       0.000000000    
   2.794049999      -2.794049999       0.000000000    
   2.794049999       0.000000000       2.794049999    

PRIMCOORD
       2       1
Na   0.000000000       0.000000000       0.000000000    
Cl   2.794049999       0.000000000       0.000000000    
