
CRYSTAL

PRIMVEC
   6.109099999       0.000000000       0.000000000    
   0.000000000       6.109099999       0.000000000    
   0.000000000       0.000000000       6.109099999    

PRIMCOORD
      16       1
Li   0.000000000       0.000000000       3.054549999    
Li   0.000000000       3.054549999       0.000000000    
Li   3.054549999       0.000000000       0.000000000    
Li   3.054549999       3.054549999       3.054549999    
Zn   1.527275000       1.527275000       1.527275000    
Zn   1.527275000       4.581824999       4.581824999    
Zn   4.581824999       1.527275000       4.581824999    
Zn   4.581824999       4.581824999       1.527275000    
Zn   4.581824999       4.581824999       4.581824999    
Zn   4.581824999       1.527275000       1.527275000    
Zn   1.527275000       4.581824999       1.527275000    
Zn   1.527275000       1.527275000       4.581824999    
Pt   0.000000000       0.000000000       0.000000000    
Pt   0.000000000       3.054549999       3.054549999    
Pt   3.054549999       0.000000000       3.054549999    
Pt   3.054549999       3.054549999       0.000000000    
