
CRYSTAL

PRIMVEC
   2.960199999       0.000000000       0.000000000    
   1.480100000       2.563608400       0.000000000    
   1.480100000      0.8545361333       2.416993178    

PRIMCOORD
       8       1
Ni   0.000000000       0.000000000       0.000000000    
Ni   1.480100000       1.709072267       1.208496589    
Ni   2.220150000      0.4272680666       1.208496589    
Ni   2.220150000       1.281804200       0.000000000    
O   2.960199999       1.709072267       1.208496589    
O   1.480100000       0.000000000       0.000000000    
O  0.7400499999       1.281804200       0.000000000    
O  0.7400499999      0.4272680666       1.208496589    
