
CRYSTAL

PRIMVEC
   4.186299999       0.000000000       0.000000000    
   0.000000000       4.186299999       0.000000000    
   0.000000000       0.000000000       4.186299999    

PRIMCOORD
       8       1
Ni   0.000000000       0.000000000       0.000000000    
Ni   0.000000000       2.093150000       2.093150000    
Ni   2.093150000       0.000000000       2.093150000    
Ni   2.093150000       2.093150000       0.000000000    
O   2.093150000       0.000000000       0.000000000    
O   2.093150000       2.093150000       2.093150000    
O   0.000000000       0.000000000       2.093150000    
O   0.000000000       2.093150000       0.000000000    
