
CRYSTAL

PRIMVEC
  0.7400499999      -1.281804200       0.000000000    
  0.7400499999     -0.4272680666      -1.208496589    
   2.220150000       1.281804200       0.000000000    

PRIMCOORD
       2       1
Ni   0.000000000       0.000000000       0.000000000    
O   1.480100000     -0.2350018894E-15   0.000000000    
