
CRYSTAL

PRIMVEC
   3.054549999       3.054549999       0.000000000    
   3.054549999      -3.054549999       0.000000000    
   3.054549999       0.000000000       3.054549999    

PRIMCOORD
       4       1
Li   3.054549999       0.000000000       0.000000000    
Zn   4.581824999      -1.527275000       1.527275000    
Zn   4.581824999       1.527275000       1.527275000    
Pt   0.000000000       0.000000000       0.000000000    
