
CRYSTAL

PRIMVEC
   3.041999999       3.041999999       0.000000000    
   3.041999999      -3.041999999       0.000000000    
   3.041999999       0.000000000       3.041999999    

PRIMCOORD
       4       1
Li   3.041999999       0.000000000       0.000000000    
Zn   4.562999999      -1.521000000       1.521000000    
Zn   4.562999999       1.521000000       1.521000000    
Pd   0.000000000       0.000000000       0.000000000    
